 &EXF_NML_01
  repeatPeriod = 31104000.,
  ocean_emissivity = 0.97,
  ice_emissivity = 0.95,
  snow_emissivity = 0.95,
  exf_iprec = 32,
  hu = 10.,
  ht = 10.,
 &
 &EXF_NML_02
  aqhfile = 'aqh.corev2_zon_avg'
  aqhstartdate1 = 00000101
  aqhstartdate2 = 000000
  aqhperiod = 2.592e+06

  atempfile = 'atemp.corev2_zon_avg'
  atempstartdate1 = 00000101
  atempstartdate2 = 000000
  atempperiod = 2.592e+06

  lwdownfile = 'lwdown.corev2_zon_avg'
  lwdownstartdate1 = 00000101
  lwdownstartdate2 = 000000
  lwdownperiod = 2.592e+06

  precipfile = 'precip.corev2_zon_avg'
  precipstartdate1 = 00000101
  precipstartdate2 = 000000
  precipperiod = 2.592e+06

  swdownfile = 'swdown.corev2_zon_avg'
  swdownstartdate1 = 00000101
  swdownstartdate2 = 000000
  swdownperiod = 2.592e+06

  uwindfile = 'uwind.corev2_zon_avg'
  uwindstartdate1 = 00000101
  uwindstartdate2 = 000000
  uwindperiod = 2.592e+06

  vwindfile = 'vwind.corev2_zon_avg'
  vwindstartdate1 = 00000101
  vwindstartdate2 = 000000
  vwindperiod = 2.592e+06

 &
 &EXF_NML_03
 &
 &EXF_NML_04
  aqh_nlon = 2
  aqh_nlat = 94
  aqh_lon0 = 0
  aqh_lon_inc = 45
  aqh_lat0 = -88.542
  aqh_lat_inc = 1.88880157,  1.90000153,  1.90239716,
  1.90339661,  1.90390015,  1.90420532,
  1.90419769,  1.90439606,  1.90450287,
  1.90450287,  1.90459442,  1.90460205,
  1.90460205,  1.90459824,  1.90470123,
  1.90459824,  1.90470123,  1.90470123,
  1.90469742,  1.90470123,  1.90470123,
  1.90470123,  1.90469742,  1.90470123,
  1.90470123,  1.90469742,  1.90480042,
  1.90470123,  1.90469742,  1.90470123,
  1.90470123,  1.90479851,  1.90470123,
  1.90469933,  1.90480042,  1.90469933,
  1.90470123,  1.90479851,  1.90470123,
  1.90469933,  1.90480042,  1.90470028,
  1.90469933,  1.90480042,  1.9046998 ,
  1.90469998,  1.90480006,  1.90469998,
  1.9046998 ,  1.90480042,  1.90469933,
  1.90470028,  1.90480042,  1.90469933,
  1.90470123,  1.90479851,  1.90470123,
  1.90469933,  1.90480042,  1.90469933,
  1.90470123,  1.90479851,  1.90470123,
  1.90470123,  1.90469742,  1.90470123,
  1.90480042,  1.90469742,  1.90470123,
  1.90470123,  1.90469742,  1.90470123,
  1.90470123,  1.90470123,  1.90469742,
  1.90470123,  1.90470123,  1.90459824,
  1.90470123,  1.90459824,  1.90460205,
  1.90460205,  1.90459442,  1.90450287,
  1.90450287,  1.90439606,  1.90419769,
  1.90420532,  1.90390015,  1.90339661,
  1.90239716,  1.90000153,  1.88880157

  atemp_nlon = 2
  atemp_nlat = 94
  atemp_lon0 = 0
  atemp_lon_inc = 45
  atemp_lat0 = -88.542
  atemp_lat_inc = 1.88880157,  1.90000153,  1.90239716,
  1.90339661,  1.90390015,  1.90420532,
  1.90419769,  1.90439606,  1.90450287,
  1.90450287,  1.90459442,  1.90460205,
  1.90460205,  1.90459824,  1.90470123,
  1.90459824,  1.90470123,  1.90470123,
  1.90469742,  1.90470123,  1.90470123,
  1.90470123,  1.90469742,  1.90470123,
  1.90470123,  1.90469742,  1.90480042,
  1.90470123,  1.90469742,  1.90470123,
  1.90470123,  1.90479851,  1.90470123,
  1.90469933,  1.90480042,  1.90469933,
  1.90470123,  1.90479851,  1.90470123,
  1.90469933,  1.90480042,  1.90470028,
  1.90469933,  1.90480042,  1.9046998 ,
  1.90469998,  1.90480006,  1.90469998,
  1.9046998 ,  1.90480042,  1.90469933,
  1.90470028,  1.90480042,  1.90469933,
  1.90470123,  1.90479851,  1.90470123,
  1.90469933,  1.90480042,  1.90469933,
  1.90470123,  1.90479851,  1.90470123,
  1.90470123,  1.90469742,  1.90470123,
  1.90480042,  1.90469742,  1.90470123,
  1.90470123,  1.90469742,  1.90470123,
  1.90470123,  1.90470123,  1.90469742,
  1.90470123,  1.90470123,  1.90459824,
  1.90470123,  1.90459824,  1.90460205,
  1.90460205,  1.90459442,  1.90450287,
  1.90450287,  1.90439606,  1.90419769,
  1.90420532,  1.90390015,  1.90339661,
  1.90239716,  1.90000153,  1.88880157

  lwdown_nlon = 2
  lwdown_nlat = 94
  lwdown_lon0 = 0
  lwdown_lon_inc = 45
  lwdown_lat0 = -88.5419
  lwdown_lat_inc = 1.88880157,  1.90000153,  1.90239716,
  1.90339661,  1.90390015,  1.90420532,
  1.90419769,  1.90439606,  1.90450287,
  1.90450287,  1.90459442,  1.90460205,
  1.90460205,  1.90459824,  1.90470123,
  1.90459824,  1.90470123,  1.90470123,
  1.90469742,  1.90470123,  1.90470123,
  1.90470123,  1.90469742,  1.90470123,
  1.90470123,  1.90469742,  1.90480042,
  1.90470123,  1.90469742,  1.90470123,
  1.90470123,  1.90479851,  1.90470123,
  1.90469933,  1.90480042,  1.90469933,
  1.90470123,  1.90479851,  1.90470123,
  1.90469933,  1.90480042,  1.90470028,
  1.90469933,  1.90480042,  1.9046998 ,
  1.90469998,  1.90480006,  1.90469998,
  1.9046998 ,  1.90480042,  1.90469933,
  1.90470028,  1.90480042,  1.90469933,
  1.90470123,  1.90479851,  1.90470123,
  1.90469933,  1.90480042,  1.90469933,
  1.90470123,  1.90479851,  1.90470123,
  1.90470123,  1.90469742,  1.90470123,
  1.90480042,  1.90469742,  1.90470123,
  1.90470123,  1.90469742,  1.90470123,
  1.90470123,  1.90470123,  1.90469742,
  1.90470123,  1.90470123,  1.90459824,
  1.90470123,  1.90459824,  1.90460205,
  1.90460205,  1.90459442,  1.90450287,
  1.90450287,  1.90439606,  1.90419769,
  1.90420532,  1.90390015,  1.90339661,
  1.90239716,  1.90000153,  1.88880157

  precip_nlon = 2
  precip_nlat = 94
  precip_lon0 = 0
  precip_lon_inc = 45
  precip_lat0 = -88.5419
  precip_lat_inc = 1.88880157,  1.90000153,  1.90239716,
  1.90339661,  1.90390015,  1.90420532,
  1.90419769,  1.90439606,  1.90450287,
  1.90450287,  1.90459442,  1.90460205,
  1.90460205,  1.90459824,  1.90470123,
  1.90459824,  1.90470123,  1.90470123,
  1.90469742,  1.90470123,  1.90470123,
  1.90470123,  1.90469742,  1.90470123,
  1.90470123,  1.90469742,  1.90480042,
  1.90470123,  1.90469742,  1.90470123,
  1.90470123,  1.90479851,  1.90470123,
  1.90469933,  1.90480042,  1.90469933,
  1.90470123,  1.90479851,  1.90470123,
  1.90469933,  1.90480042,  1.90470028,
  1.90469933,  1.90480042,  1.9046998 ,
  1.90469998,  1.90480006,  1.90469998,
  1.9046998 ,  1.90480042,  1.90469933,
  1.90470028,  1.90480042,  1.90469933,
  1.90470123,  1.90479851,  1.90470123,
  1.90469933,  1.90480042,  1.90469933,
  1.90470123,  1.90479851,  1.90470123,
  1.90470123,  1.90469742,  1.90470123,
  1.90480042,  1.90469742,  1.90470123,
  1.90470123,  1.90469742,  1.90470123,
  1.90470123,  1.90470123,  1.90469742,
  1.90470123,  1.90470123,  1.90459824,
  1.90470123,  1.90459824,  1.90460205,
  1.90460205,  1.90459442,  1.90450287,
  1.90450287,  1.90439606,  1.90419769,
  1.90420532,  1.90390015,  1.90339661,
  1.90239716,  1.90000153,  1.88880157

  swdown_nlon = 2
  swdown_nlat = 94
  swdown_lon0 = 0
  swdown_lon_inc = 45
  swdown_lat0 = -88.5419
  swdown_lat_inc = 1.88880157,  1.90000153,  1.90239716,
  1.90339661,  1.90390015,  1.90420532,
  1.90419769,  1.90439606,  1.90450287,
  1.90450287,  1.90459442,  1.90460205,
  1.90460205,  1.90459824,  1.90470123,
  1.90459824,  1.90470123,  1.90470123,
  1.90469742,  1.90470123,  1.90470123,
  1.90470123,  1.90469742,  1.90470123,
  1.90470123,  1.90469742,  1.90480042,
  1.90470123,  1.90469742,  1.90470123,
  1.90470123,  1.90479851,  1.90470123,
  1.90469933,  1.90480042,  1.90469933,
  1.90470123,  1.90479851,  1.90470123,
  1.90469933,  1.90480042,  1.90470028,
  1.90469933,  1.90480042,  1.9046998 ,
  1.90469998,  1.90480006,  1.90469998,
  1.9046998 ,  1.90480042,  1.90469933,
  1.90470028,  1.90480042,  1.90469933,
  1.90470123,  1.90479851,  1.90470123,
  1.90469933,  1.90480042,  1.90469933,
  1.90470123,  1.90479851,  1.90470123,
  1.90470123,  1.90469742,  1.90470123,
  1.90480042,  1.90469742,  1.90470123,
  1.90470123,  1.90469742,  1.90470123,
  1.90470123,  1.90470123,  1.90469742,
  1.90470123,  1.90470123,  1.90459824,
  1.90470123,  1.90459824,  1.90460205,
  1.90460205,  1.90459442,  1.90450287,
  1.90450287,  1.90439606,  1.90419769,
  1.90420532,  1.90390015,  1.90339661,
  1.90239716,  1.90000153,  1.88880157

  uwind_nlon = 2
  uwind_nlat = 94
  uwind_lon0 = 0
  uwind_lon_inc = 45
  uwind_lat0 = -88.542
  uwind_lat_inc = 1.88880157,  1.90000153,  1.90239716,
  1.90339661,  1.90390015,  1.90420532,
  1.90419769,  1.90439606,  1.90450287,
  1.90450287,  1.90459442,  1.90460205,
  1.90460205,  1.90459824,  1.90470123,
  1.90459824,  1.90470123,  1.90470123,
  1.90469742,  1.90470123,  1.90470123,
  1.90470123,  1.90469742,  1.90470123,
  1.90470123,  1.90469742,  1.90480042,
  1.90470123,  1.90469742,  1.90470123,
  1.90470123,  1.90479851,  1.90470123,
  1.90469933,  1.90480042,  1.90469933,
  1.90470123,  1.90479851,  1.90470123,
  1.90469933,  1.90480042,  1.90470028,
  1.90469933,  1.90480042,  1.9046998 ,
  1.90469998,  1.90480006,  1.90469998,
  1.9046998 ,  1.90480042,  1.90469933,
  1.90470028,  1.90480042,  1.90469933,
  1.90470123,  1.90479851,  1.90470123,
  1.90469933,  1.90480042,  1.90469933,
  1.90470123,  1.90479851,  1.90470123,
  1.90470123,  1.90469742,  1.90470123,
  1.90480042,  1.90469742,  1.90470123,
  1.90470123,  1.90469742,  1.90470123,
  1.90470123,  1.90470123,  1.90469742,
  1.90470123,  1.90470123,  1.90459824,
  1.90470123,  1.90459824,  1.90460205,
  1.90460205,  1.90459442,  1.90450287,
  1.90450287,  1.90439606,  1.90419769,
  1.90420532,  1.90390015,  1.90339661,
  1.90239716,  1.90000153,  1.88880157

  vwind_nlon = 2
  vwind_nlat = 94
  vwind_lon0 = 0
  vwind_lon_inc = 45
  vwind_lat0 = -88.542
  vwind_lat_inc = 1.88880157,  1.90000153,  1.90239716,
  1.90339661,  1.90390015,  1.90420532,
  1.90419769,  1.90439606,  1.90450287,
  1.90450287,  1.90459442,  1.90460205,
  1.90460205,  1.90459824,  1.90470123,
  1.90459824,  1.90470123,  1.90470123,
  1.90469742,  1.90470123,  1.90470123,
  1.90470123,  1.90469742,  1.90470123,
  1.90470123,  1.90469742,  1.90480042,
  1.90470123,  1.90469742,  1.90470123,
  1.90470123,  1.90479851,  1.90470123,
  1.90469933,  1.90480042,  1.90469933,
  1.90470123,  1.90479851,  1.90470123,
  1.90469933,  1.90480042,  1.90470028,
  1.90469933,  1.90480042,  1.9046998 ,
  1.90469998,  1.90480006,  1.90469998,
  1.9046998 ,  1.90480042,  1.90469933,
  1.90470028,  1.90480042,  1.90469933,
  1.90470123,  1.90479851,  1.90470123,
  1.90469933,  1.90480042,  1.90469933,
  1.90470123,  1.90479851,  1.90470123,
  1.90470123,  1.90469742,  1.90470123,
  1.90480042,  1.90469742,  1.90470123,
  1.90470123,  1.90469742,  1.90470123,
  1.90470123,  1.90470123,  1.90469742,
  1.90470123,  1.90470123,  1.90459824,
  1.90470123,  1.90459824,  1.90460205,
  1.90460205,  1.90459442,  1.90450287,
  1.90450287,  1.90439606,  1.90419769,
  1.90420532,  1.90390015,  1.90339661,
  1.90239716,  1.90000153,  1.88880157

 &