# do we actually need anything here?
&CAL_NML
 TheCalendar='gregorian',
 startDate_1=00000101,
 startDate_2=000000,
 &
